Info: SIMULATION PARAMETERS:
Info: TIMESTEP               2
Info: NUMBER OF STEPS        0
Info: STEPS PER CYCLE        10
Info: PERIODIC CELL BASIS 1  100 0 0
Info: PERIODIC CELL BASIS 2  0 100 0
Info: PERIODIC CELL BASIS 3  0 0 100
Info: PERIODIC CELL CENTER   0 0 0
Info: WRAPPING WATERS AROUND PERIODIC BOUNDARIES ON OUTPUT.
Info: WRAPPING ALL CLUSTERS AROUND PERIODIC BOUNDARIES ON OUTPUT.
Info: FIRST LDB TIMESTEP     50
Info: LAST LDB TIMESTEP     -1
Info: HOM BACKGROUND SCALING 1
Info: PME BACKGROUND SCALING 1
Info: MIN ATOMS PER PATCH    40
Info: INITIAL TEMPERATURE    300
Info: CENTER OF MASS MOVING INITIALLY? NO
Info: REMOVING CENTER OF MASS DRIFT DURING SIMULATION
Info: DIELECTRIC             1
Info: EXCLUDE                SCALED ONE-FOUR
Info: 1-4 ELECTROSTATICS SCALED BY 1
Info: MODIFIED 1-4 VDW PARAMETERS WILL BE USED
Info: DCD FILENAME           MDequil.dcd
Info: DCD FREQUENCY          5000
Info: DCD FIRST STEP         5000
Info: DCD FILE WILL CONTAIN UNIT CELL DATA
Info: XST FILENAME           MDequil.xst
Info: XST FREQUENCY          5000
Info: NO VELOCITY DCD OUTPUT
Info: NO FORCE DCD OUTPUT
Info: OUTPUT FILENAME        MDequil
Info: BINARY OUTPUT FILES WILL BE USED
Info: RESTART FILENAME       MDequil.restart
Info: RESTART FREQUENCY      50000
Info: BINARY RESTART FILES WILL BE USED
Info: SWITCHING ACTIVE
Info: SWITCHING ON           10
Info: SWITCHING OFF          12
Info: PAIRLIST DISTANCE      14
Info: PAIRLIST SHRINK RATE   0.01
Info: PAIRLIST GROW RATE     0.01
Info: PAIRLIST TRIGGER       0.3
Info: PAIRLISTS PER CYCLE    2
Info: PAIRLISTS ENABLED
Info: MARGIN                 0
Info: HYDROGEN GROUP CUTOFF  2.5
Info: PATCH DIMENSION        16.5
Info: ENERGY OUTPUT STEPS    5000
Info: CROSSTERM ENERGY INCLUDED IN DIHEDRAL
Info: TIMING OUTPUT STEPS    50000
Info: PRESSURE OUTPUT STEPS  5000
Info: LANGEVIN DYNAMICS ACTIVE
Info: LANGEVIN TEMPERATURE   300
Info: LANGEVIN USING BBK INTEGRATOR
Info: LANGEVIN DAMPING COEFFICIENT IS 1 INVERSE PS
Info: LANGEVIN DYNAMICS NOT APPLIED TO HYDROGENS
Info: PARTICLE MESH EWALD (PME) ACTIVE
Info: PME TOLERANCE               1e-06
Info: PME EWALD COEFFICIENT       0.257952
Info: PME INTERPOLATION ORDER     4
Info: PME GRID DIMENSIONS         108 108 108
Info: PME MAXIMUM GRID SPACING    1
Info: FULL ELECTROSTATIC EVALUATION FREQUENCY      2
Info: USING VERLET I (r-RESPA) MTS SCHEME.
Info: C1 SPLITTING OF LONG RANGE ELECTROSTATICS
Info: PLACING ATOMS IN PATCHES BY HYDROGEN GROUPS
Info: RIGID BONDS TO HYDROGEN : ALL
Info:         ERROR TOLERANCE : 1e-08
Info:          MAX ITERATIONS : 100
Info: RIGID WATER USING SETTLE ALGORITHM
Info: RANDOM NUMBER SEED     1712568970
Info: USE HYDROGEN BONDS?    NO
Info: COORDINATE PDB         ../input/system.pdb
Info: STRUCTURE FILE         ../input/system.psf
Info: PARAMETER file: CHARMM format!
Info: PARAMETERS             ../input/par_all36m_prot.inp
Info: PARAMETERS             ../input/par_water_ions.inp
Info: USING ARITHMETIC MEAN TO COMBINE L-J SIGMA PARAMETERS
Info: SUMMARY OF PARAMETERS:
Info: 135 BONDS
Info: 365 ANGLES
Info: 706 DIHEDRAL
Info: 35 IMPROPER
Info: 6 CROSSTERM
Info: 68 VDW
Info: 3 VDW_PAIRS
Info: 0 NBTHOLE_PAIRS
Info: STRUCTURE SUMMARY:
Info: 2941 ATOMS
Info: 2377 BONDS
Info: 2827 ANGLES
Info: 3293 DIHEDRALS
Info: 212 IMPROPERS
Info: 74 CROSSTERMS
Info: 0 EXCLUSIONS
Info: 2339 RIGID BONDS
Info: 6484 DEGREES OF FREEDOM
Info: 1172 HYDROGEN GROUPS
Info: 4 ATOMS IN LARGEST HYDROGEN GROUP
Info: 1172 MIGRATION GROUPS
Info: 4 ATOMS IN LARGEST MIGRATION GROUP
Info: TOTAL MASS = 18833.6 amu
Info: TOTAL CHARGE = 1.0021e-06 e
Info: MASS DENSITY = 0.0312747 g/cm^3
Info: ATOM DENSITY = 0.002941 atoms/A^3
Info: ADDED 8468 IMPLICIT EXCLUSIONS
Info: NONBONDED TABLE R-SQUARED SPACING: 0.0625
Info: NONBONDED TABLE SIZE: 769 POINTS
Info: REMOVING COM VELOCITY 0.0454294 0.242893 0.260115
TCL: Minimizing for 5000 steps
ETITLE: TS BOND ANGLE DIHED IMPRP ELECT VDW BOUNDARY MISC KINETIC TOTAL TEMP POTENTIAL TOTAL3 TEMPAVG PRESSURE GPRESSURE VOLUME PRESSAVG GPRESSAVG
ENERGY: 0 263.6662 351.8868 709.0855 10.7699 -5692.4918 715.0453 0.0000 0.0000 0.0000 -3642.0381 0.0000 -3642.0381 -3642.0381 0.0000 459.3182 116.1382 1000000.0000 459.3182 116.1382
ENERGY: 1000 63.4226 218.4400 666.4644 9.1345 -9910.9478 588.9138 0.0000 0.0000 0.0000 -8364.5724 0.0000 -8364.5724 -8364.5724 0.0000 384.7391 384.4271 1000000.0000 384.7391 384.4271
ENERGY: 2000 60.6297 213.1285 669.1474 9.9351 -10343.1158 655.6228 0.0000 0.0000 0.0000 -8734.6522 0.0000 -8734.6522 -8734.6522 0.0000 437.5477 436.1163 1000000.0000 437.5477 436.1163
ENERGY: 3000 59.0974 210.4476 669.4834 10.1002 -10475.7210 673.7139 0.0000 0.0000 0.0000 -8852.8784 0.0000 -8852.8784 -8852.8784 0.0000 456.0094 455.0687 1000000.0000 456.0094 455.0687
ENERGY: 4000 59.2732 210.2360 668.8583 10.3971 -10558.3974 676.4584 0.0000 0.0000 0.0000 -8933.1744 0.0000 -8933.1744 -8933.1744 0.0000 463.2345 462.6319 1000000.0000 463.2345 462.6319
ENERGY: 5000 58.2307 207.9544 671.9418 10.8693 -10614.8900 675.6752 0.0000 0.0000 0.0000 -8990.2186 0.0000 -8990.2186 -8990.2186 0.0000 467.3769 465.2221 1000000.0000 467.3769 465.2221
TCL: Running for 500000 steps
ETITLE: TS BOND ANGLE DIHED IMPRP ELECT VDW BOUNDARY MISC KINETIC TOTAL TEMP POTENTIAL TOTAL3 TEMPAVG PRESSURE GPRESSURE VOLUME PRESSAVG GPRESSAVG
ENERGY: 5000 58.2307 207.9544 671.9418 10.8693 -10614.8900 675.6752 0.0000 0.0000 0.0000 -8990.2186 0.0000 -8990.2186 -8990.2544 0.0000 -5.1687 -4.2018 1000000.0000 -5.1687 -4.2018
ENERGY: 105000 247.9023 688.6852 734.5434 48.1617 -9068.8974 280.1344 0.0000 0.0000 1928.2762 -5141.1941 299.3068 -7069.4703 -5128.8329 299.9727 12.1220 12.1274 1000000.0000 0.1959 0.1927
ENERGY: 205000 251.7561 665.8922 729.6236 38.7294 -8994.1144 189.3144 0.0000 0.0000 1941.3195 -5177.4791 301.3314 -7118.7986 -5164.8463 301.9123 -59.8111 -59.4029 1000000.0000 0.3955 0.3963
ENERGY: 305000 229.1704 685.7486 729.9631 41.1134 -9058.1436 260.1206 0.0000 0.0000 1910.9820 -5201.0457 296.6224 -7112.0277 -5188.0250 297.7744 -15.0197 -14.1598 1000000.0000 0.7026 0.7013
ENERGY: 405000 266.0698 694.5749 706.8179 41.8992 -9091.8995 262.3453 0.0000 0.0000 1891.6649 -5228.5276 293.6240 -7120.1925 -5216.1354 297.0756 4.4628 5.5049 1000000.0000 0.2552 0.2563
ENERGY: 505000 246.4435 714.0492 714.2164 46.1195 -9006.5226 196.6840 0.0000 0.0000 1954.4050 -5134.6049 303.3625 -7089.0099 -5121.6038 299.9804 -5.8615 -5.4393 1000000.0000 -0.7207 -0.7250
